<?xml version="1.0" encoding="UTF-8"?>

<configuration xmlns:xsi="http://www.w3.org/2001/XMLSchema-instance">
    <input>
        <net-file value="inter.net.xml"/>
        <route-files value="inter.rou.xml"/>
        <additional-files value="e2.add.xml"/>
        <gui-settings-file value="inter.settings.xml"/>
    </input>

    <time>
        <begin value="0"/>
    </time>

    <report>
        <verbose value="true"/>
        <no-step-log value="true"/>
    </report>

</configuration>
