<?xml version="1.0" encoding="UTF-8"?>

<!-- generated on Wed 06 Mar 2019 02:47:50 PM CST by Eclipse SUMO netedit Version 1.1.0
<configuration xmlns:xsi="http://www.w3.org/2001/XMLSchema-instance" xsi:noNamespaceSchemaLocation="http://sumo.dlr.de/xsd/netconvertConfiguration.xsd">

    <input>
        <sumo-net-file value="/home/rootuser/githubs/sumo-projects/single_intersection/inter.net.xml"/>
    </input>

    <output>
        <output-file value="/home/rootuser/githubs/sumo-projects/single_intersection/inter.net.xml"/>
    </output>

    <processing>
        <geometry.max-grade.fix value="false"/>
        <offset.disable-normalization value="true"/>
        <lefthand value="false"/>
    </processing>

    <junctions>
        <no-turnarounds value="true"/>
        <junctions.corner-detail value="0"/>
        <junctions.limit-turn-speed value="-1"/>
        <rectangular-lane-cut value="false"/>
    </junctions>

    <pedestrian>
        <walkingareas value="false"/>
    </pedestrian>

</configuration>
-->

<net version="1.1" xmlns:xsi="http://www.w3.org/2001/XMLSchema-instance" xsi:noNamespaceSchemaLocation="http://sumo.dlr.de/xsd/net_file.xsd">

    <location netOffset="0.00,0.00" convBoundary="-510.00,-510.00,510.00,510.00" origBoundary="-10000000000.00,-10000000000.00,10000000000.00,10000000000.00" projParameter="!"/>

    <edge id=":0_0" function="internal">
        <lane id=":0_0_0" index="0" speed="16.67" length="5.56" shape="-11.20,14.65 -11.42,13.14 -12.06,12.06 -13.14,11.42 -14.65,11.20"/>
    </edge>
    <edge id=":0_1" function="internal">
        <lane id=":0_1_0" index="0" speed="16.67" length="29.30" shape="-11.20,14.65 -11.20,-14.65"/>
        <lane id=":0_1_1" index="1" speed="16.67" length="29.30" shape="-8.00,14.65 -8.00,-14.65"/>
        <lane id=":0_1_2" index="2" speed="16.67" length="29.30" shape="-4.80,14.65 -4.80,-14.65"/>
    </edge>
    <edge id=":0_4" function="internal">
        <lane id=":0_4_0" index="0" speed="16.67" length="13.96" shape="-1.60,14.65 -0.58,7.54 2.46,2.46 3.20,2.02"/>
    </edge>
    <edge id=":0_20" function="internal">
        <lane id=":0_20_0" index="0" speed="16.67" length="12.24" shape="3.20,2.02 7.54,-0.58 14.65,-1.60"/>
    </edge>
    <edge id=":0_5" function="internal">
        <lane id=":0_5_0" index="0" speed="16.67" length="5.56" shape="14.65,11.20 13.14,11.42 12.06,12.06 11.42,13.14 11.20,14.65"/>
    </edge>
    <edge id=":0_6" function="internal">
        <lane id=":0_6_0" index="0" speed="16.67" length="29.30" shape="14.65,11.20 -14.65,11.20"/>
        <lane id=":0_6_1" index="1" speed="16.67" length="29.30" shape="14.65,8.00 -14.65,8.00"/>
        <lane id=":0_6_2" index="2" speed="16.67" length="29.30" shape="14.65,4.80 -14.65,4.80"/>
    </edge>
    <edge id=":0_9" function="internal">
        <lane id=":0_9_0" index="0" speed="16.67" length="13.96" shape="14.65,1.60 7.54,0.58 2.46,-2.46 2.02,-3.20"/>
    </edge>
    <edge id=":0_21" function="internal">
        <lane id=":0_21_0" index="0" speed="16.67" length="12.24" shape="2.02,-3.20 -0.58,-7.54 -1.60,-14.65"/>
    </edge>
    <edge id=":0_10" function="internal">
        <lane id=":0_10_0" index="0" speed="16.67" length="5.56" shape="11.20,-14.65 11.42,-13.14 12.06,-12.06 13.14,-11.42 14.65,-11.20"/>
    </edge>
    <edge id=":0_11" function="internal">
        <lane id=":0_11_0" index="0" speed="16.67" length="29.30" shape="11.20,-14.65 11.20,14.65"/>
        <lane id=":0_11_1" index="1" speed="16.67" length="29.30" shape="8.00,-14.65 8.00,14.65"/>
        <lane id=":0_11_2" index="2" speed="16.67" length="29.30" shape="4.80,-14.65 4.80,14.65"/>
    </edge>
    <edge id=":0_14" function="internal">
        <lane id=":0_14_0" index="0" speed="16.67" length="13.96" shape="1.60,-14.65 0.58,-7.54 -2.46,-2.46 -3.20,-2.02"/>
    </edge>
    <edge id=":0_22" function="internal">
        <lane id=":0_22_0" index="0" speed="16.67" length="12.24" shape="-3.20,-2.02 -7.54,0.58 -14.65,1.60"/>
    </edge>
    <edge id=":0_15" function="internal">
        <lane id=":0_15_0" index="0" speed="16.67" length="5.56" shape="-14.65,-11.20 -13.14,-11.42 -12.06,-12.06 -11.42,-13.14 -11.20,-14.65"/>
    </edge>
    <edge id=":0_16" function="internal">
        <lane id=":0_16_0" index="0" speed="16.67" length="29.30" shape="-14.65,-11.20 14.65,-11.20"/>
        <lane id=":0_16_1" index="1" speed="16.67" length="29.30" shape="-14.65,-8.00 14.65,-8.00"/>
        <lane id=":0_16_2" index="2" speed="16.67" length="29.30" shape="-14.65,-4.80 14.65,-4.80"/>
    </edge>
    <edge id=":0_19" function="internal">
        <lane id=":0_19_0" index="0" speed="16.67" length="13.96" shape="-14.65,-1.60 -7.54,-0.58 -2.46,2.46 -2.02,3.20"/>
    </edge>
    <edge id=":0_23" function="internal">
        <lane id=":0_23_0" index="0" speed="16.67" length="12.24" shape="-2.02,3.20 0.58,7.54 1.60,14.65"/>
    </edge>
    <edge id=":1_0" function="internal">
        <lane id=":1_0_0" index="0" speed="16.67" length="3.00" shape="-11.20,501.50 -11.20,498.50"/>
        <lane id=":1_0_1" index="1" speed="16.67" length="3.00" shape="-8.00,501.50 -8.00,498.50"/>
        <lane id=":1_0_2" index="2" speed="16.67" length="3.00" shape="-4.80,501.50 -4.80,498.50"/>
        <lane id=":1_0_3" index="3" speed="16.67" length="3.00" shape="-1.60,501.50 -1.60,498.50"/>
    </edge>
    <edge id=":1_4" function="internal">
        <lane id=":1_4_0" index="0" speed="16.67" length="3.00" shape="11.20,498.50 11.20,501.50"/>
        <lane id=":1_4_1" index="1" speed="16.67" length="3.00" shape="8.00,498.50 8.00,501.50"/>
        <lane id=":1_4_2" index="2" speed="16.67" length="3.00" shape="4.80,498.50 4.80,501.50"/>
        <lane id=":1_4_3" index="3" speed="16.67" length="3.00" shape="1.60,498.50 1.60,501.50"/>
    </edge>
    <edge id=":2_0" function="internal">
        <lane id=":2_0_0" index="0" speed="16.67" length="3.00" shape="501.50,11.20 498.50,11.20"/>
        <lane id=":2_0_1" index="1" speed="16.67" length="3.00" shape="501.50,8.00 498.50,8.00"/>
        <lane id=":2_0_2" index="2" speed="16.67" length="3.00" shape="501.50,4.80 498.50,4.80"/>
        <lane id=":2_0_3" index="3" speed="16.67" length="3.00" shape="501.50,1.60 498.50,1.60"/>
    </edge>
    <edge id=":2_4" function="internal">
        <lane id=":2_4_0" index="0" speed="16.67" length="3.00" shape="498.50,-11.20 501.50,-11.20"/>
        <lane id=":2_4_1" index="1" speed="16.67" length="3.00" shape="498.50,-8.00 501.50,-8.00"/>
        <lane id=":2_4_2" index="2" speed="16.67" length="3.00" shape="498.50,-4.80 501.50,-4.80"/>
        <lane id=":2_4_3" index="3" speed="16.67" length="3.00" shape="498.50,-1.60 501.50,-1.60"/>
    </edge>
    <edge id=":3_0" function="internal">
        <lane id=":3_0_0" index="0" speed="16.67" length="3.00" shape="-11.20,-498.50 -11.20,-501.50"/>
        <lane id=":3_0_1" index="1" speed="16.67" length="3.00" shape="-8.00,-498.50 -8.00,-501.50"/>
        <lane id=":3_0_2" index="2" speed="16.67" length="3.00" shape="-4.80,-498.50 -4.80,-501.50"/>
        <lane id=":3_0_3" index="3" speed="16.67" length="3.00" shape="-1.60,-498.50 -1.60,-501.50"/>
    </edge>
    <edge id=":3_4" function="internal">
        <lane id=":3_4_0" index="0" speed="16.67" length="3.00" shape="11.20,-501.50 11.20,-498.50"/>
        <lane id=":3_4_1" index="1" speed="16.67" length="3.00" shape="8.00,-501.50 8.00,-498.50"/>
        <lane id=":3_4_2" index="2" speed="16.67" length="3.00" shape="4.80,-501.50 4.80,-498.50"/>
        <lane id=":3_4_3" index="3" speed="16.67" length="3.00" shape="1.60,-501.50 1.60,-498.50"/>
    </edge>
    <edge id=":4_0" function="internal">
        <lane id=":4_0_0" index="0" speed="16.67" length="3.00" shape="-498.50,11.20 -501.50,11.20"/>
        <lane id=":4_0_1" index="1" speed="16.67" length="3.00" shape="-498.50,8.00 -501.50,8.00"/>
        <lane id=":4_0_2" index="2" speed="16.67" length="3.00" shape="-498.50,4.80 -501.50,4.80"/>
        <lane id=":4_0_3" index="3" speed="16.67" length="3.00" shape="-498.50,1.60 -501.50,1.60"/>
    </edge>
    <edge id=":4_4" function="internal">
        <lane id=":4_4_0" index="0" speed="16.67" length="3.00" shape="-501.50,-11.20 -498.50,-11.20"/>
        <lane id=":4_4_1" index="1" speed="16.67" length="3.00" shape="-501.50,-8.00 -498.50,-8.00"/>
        <lane id=":4_4_2" index="2" speed="16.67" length="3.00" shape="-501.50,-4.80 -498.50,-4.80"/>
        <lane id=":4_4_3" index="3" speed="16.67" length="3.00" shape="-501.50,-1.60 -498.50,-1.60"/>
    </edge>

    <edge id="1i" from="1" to="0" priority="1">
        <lane id="1i_0" index="0" speed="16.67" length="483.85" shape="-11.20,498.50 -11.20,14.65"/>
        <lane id="1i_1" index="1" speed="16.67" length="483.85" shape="-8.00,498.50 -8.00,14.65"/>
        <lane id="1i_2" index="2" speed="16.67" length="483.85" shape="-4.80,498.50 -4.80,14.65"/>
        <lane id="1i_3" index="3" speed="16.67" length="483.85" shape="-1.60,498.50 -1.60,14.65"/>
    </edge>
    <edge id="1o" from="0" to="1" priority="1">
        <lane id="1o_0" index="0" speed="16.67" length="483.85" shape="11.20,14.65 11.20,498.50"/>
        <lane id="1o_1" index="1" speed="16.67" length="483.85" shape="8.00,14.65 8.00,498.50"/>
        <lane id="1o_2" index="2" speed="16.67" length="483.85" shape="4.80,14.65 4.80,498.50"/>
        <lane id="1o_3" index="3" speed="16.67" length="483.85" shape="1.60,14.65 1.60,498.50"/>
    </edge>
    <edge id="2i" from="2" to="0" priority="1">
        <lane id="2i_0" index="0" speed="16.67" length="483.85" shape="498.50,11.20 14.65,11.20"/>
        <lane id="2i_1" index="1" speed="16.67" length="483.85" shape="498.50,8.00 14.65,8.00"/>
        <lane id="2i_2" index="2" speed="16.67" length="483.85" shape="498.50,4.80 14.65,4.80"/>
        <lane id="2i_3" index="3" speed="16.67" length="483.85" shape="498.50,1.60 14.65,1.60"/>
    </edge>
    <edge id="2o" from="0" to="2" priority="1">
        <lane id="2o_0" index="0" speed="16.67" length="483.85" shape="14.65,-11.20 498.50,-11.20"/>
        <lane id="2o_1" index="1" speed="16.67" length="483.85" shape="14.65,-8.00 498.50,-8.00"/>
        <lane id="2o_2" index="2" speed="16.67" length="483.85" shape="14.65,-4.80 498.50,-4.80"/>
        <lane id="2o_3" index="3" speed="16.67" length="483.85" shape="14.65,-1.60 498.50,-1.60"/>
    </edge>
    <edge id="3i" from="3" to="0" priority="1">
        <lane id="3i_0" index="0" speed="16.67" length="483.85" shape="11.20,-498.50 11.20,-14.65"/>
        <lane id="3i_1" index="1" speed="16.67" length="483.85" shape="8.00,-498.50 8.00,-14.65"/>
        <lane id="3i_2" index="2" speed="16.67" length="483.85" shape="4.80,-498.50 4.80,-14.65"/>
        <lane id="3i_3" index="3" speed="16.67" length="483.85" shape="1.60,-498.50 1.60,-14.65"/>
    </edge>
    <edge id="3o" from="0" to="3" priority="1">
        <lane id="3o_0" index="0" speed="16.67" length="483.85" shape="-11.20,-14.65 -11.20,-498.50"/>
        <lane id="3o_1" index="1" speed="16.67" length="483.85" shape="-8.00,-14.65 -8.00,-498.50"/>
        <lane id="3o_2" index="2" speed="16.67" length="483.85" shape="-4.80,-14.65 -4.80,-498.50"/>
        <lane id="3o_3" index="3" speed="16.67" length="483.85" shape="-1.60,-14.65 -1.60,-498.50"/>
    </edge>
    <edge id="4i" from="4" to="0" priority="1">
        <lane id="4i_0" index="0" speed="16.67" length="483.85" shape="-498.50,-11.20 -14.65,-11.20"/>
        <lane id="4i_1" index="1" speed="16.67" length="483.85" shape="-498.50,-8.00 -14.65,-8.00"/>
        <lane id="4i_2" index="2" speed="16.67" length="483.85" shape="-498.50,-4.80 -14.65,-4.80"/>
        <lane id="4i_3" index="3" speed="16.67" length="483.85" shape="-498.50,-1.60 -14.65,-1.60"/>
    </edge>
    <edge id="4o" from="0" to="4" priority="1">
        <lane id="4o_0" index="0" speed="16.67" length="483.85" shape="-14.65,11.20 -498.50,11.20"/>
        <lane id="4o_1" index="1" speed="16.67" length="483.85" shape="-14.65,8.00 -498.50,8.00"/>
        <lane id="4o_2" index="2" speed="16.67" length="483.85" shape="-14.65,4.80 -498.50,4.80"/>
        <lane id="4o_3" index="3" speed="16.67" length="483.85" shape="-14.65,1.60 -498.50,1.60"/>
    </edge>
    <edge id="51i" from="51" to="1" priority="1">
        <lane id="51i_0" index="0" speed="16.67" length="8.50" shape="-11.20,510.00 -11.20,501.50"/>
        <lane id="51i_1" index="1" speed="16.67" length="8.50" shape="-8.00,510.00 -8.00,501.50"/>
        <lane id="51i_2" index="2" speed="16.67" length="8.50" shape="-4.80,510.00 -4.80,501.50"/>
        <lane id="51i_3" index="3" speed="16.67" length="8.50" shape="-1.60,510.00 -1.60,501.50"/>
    </edge>
    <edge id="51o" from="1" to="51" priority="1">
        <lane id="51o_0" index="0" speed="16.67" length="8.50" shape="11.20,501.50 11.20,510.00"/>
        <lane id="51o_1" index="1" speed="16.67" length="8.50" shape="8.00,501.50 8.00,510.00"/>
        <lane id="51o_2" index="2" speed="16.67" length="8.50" shape="4.80,501.50 4.80,510.00"/>
        <lane id="51o_3" index="3" speed="16.67" length="8.50" shape="1.60,501.50 1.60,510.00"/>
    </edge>
    <edge id="52i" from="52" to="2" priority="1">
        <lane id="52i_0" index="0" speed="16.67" length="8.50" shape="510.00,11.20 501.50,11.20"/>
        <lane id="52i_1" index="1" speed="16.67" length="8.50" shape="510.00,8.00 501.50,8.00"/>
        <lane id="52i_2" index="2" speed="16.67" length="8.50" shape="510.00,4.80 501.50,4.80"/>
        <lane id="52i_3" index="3" speed="16.67" length="8.50" shape="510.00,1.60 501.50,1.60"/>
    </edge>
    <edge id="52o" from="2" to="52" priority="1">
        <lane id="52o_0" index="0" speed="16.67" length="8.50" shape="501.50,-11.20 510.00,-11.20"/>
        <lane id="52o_1" index="1" speed="16.67" length="8.50" shape="501.50,-8.00 510.00,-8.00"/>
        <lane id="52o_2" index="2" speed="16.67" length="8.50" shape="501.50,-4.80 510.00,-4.80"/>
        <lane id="52o_3" index="3" speed="16.67" length="8.50" shape="501.50,-1.60 510.00,-1.60"/>
    </edge>
    <edge id="53i" from="53" to="3" priority="1">
        <lane id="53i_0" index="0" speed="16.67" length="8.50" shape="11.20,-510.00 11.20,-501.50"/>
        <lane id="53i_1" index="1" speed="16.67" length="8.50" shape="8.00,-510.00 8.00,-501.50"/>
        <lane id="53i_2" index="2" speed="16.67" length="8.50" shape="4.80,-510.00 4.80,-501.50"/>
        <lane id="53i_3" index="3" speed="16.67" length="8.50" shape="1.60,-510.00 1.60,-501.50"/>
    </edge>
    <edge id="53o" from="3" to="53" priority="1">
        <lane id="53o_0" index="0" speed="16.67" length="8.50" shape="-11.20,-501.50 -11.20,-510.00"/>
        <lane id="53o_1" index="1" speed="16.67" length="8.50" shape="-8.00,-501.50 -8.00,-510.00"/>
        <lane id="53o_2" index="2" speed="16.67" length="8.50" shape="-4.80,-501.50 -4.80,-510.00"/>
        <lane id="53o_3" index="3" speed="16.67" length="8.50" shape="-1.60,-501.50 -1.60,-510.00"/>
    </edge>
    <edge id="54i" from="54" to="4" priority="1">
        <lane id="54i_0" index="0" speed="16.67" length="8.50" shape="-510.00,-11.20 -501.50,-11.20"/>
        <lane id="54i_1" index="1" speed="16.67" length="8.50" shape="-510.00,-8.00 -501.50,-8.00"/>
        <lane id="54i_2" index="2" speed="16.67" length="8.50" shape="-510.00,-4.80 -501.50,-4.80"/>
        <lane id="54i_3" index="3" speed="16.67" length="8.50" shape="-510.00,-1.60 -501.50,-1.60"/>
    </edge>
    <edge id="54o" from="4" to="54" priority="1">
        <lane id="54o_0" index="0" speed="16.67" length="8.50" shape="-501.50,11.20 -510.00,11.20"/>
        <lane id="54o_1" index="1" speed="16.67" length="8.50" shape="-501.50,8.00 -510.00,8.00"/>
        <lane id="54o_2" index="2" speed="16.67" length="8.50" shape="-501.50,4.80 -510.00,4.80"/>
        <lane id="54o_3" index="3" speed="16.67" length="8.50" shape="-501.50,1.60 -510.00,1.60"/>
    </edge>

    <tlLogic id="tlstatic" type="static" programID="0" offset="0">
        <phase duration="6"  state="GGGGgrrrrrGGGGgrrrrr"/>
        <phase duration="4"  state="yyyygrrrrryyyygrrrrr"/>
        <phase duration="6"  state="rrrrGrrrrrrrrrGrrrrr"/>
        <phase duration="4"  state="rrrryrrrrrrrrryrrrrr"/>
        <phase duration="6"  state="rrrrrGGGGgrrrrrGGGGg"/>
        <phase duration="4"  state="rrrrryyyygrrrrryyyyg"/>
        <phase duration="6"  state="rrrrrrrrrGrrrrrrrrrG"/>
        <phase duration="4"  state="rrrrrrrrryrrrrrrrrry"/>
    </tlLogic>

    <junction id="0" type="traffic_light" x="0.00" y="0.00" incLanes="1i_0 1i_1 1i_2 1i_3 2i_0 2i_1 2i_2 2i_3 3i_0 3i_1 3i_2 3i_3 4i_0 4i_1 4i_2 4i_3" intLanes=":0_0_0 :0_1_0 :0_1_1 :0_1_2 :0_20_0 :0_5_0 :0_6_0 :0_6_1 :0_6_2 :0_21_0 :0_10_0 :0_11_0 :0_11_1 :0_11_2 :0_22_0 :0_15_0 :0_16_0 :0_16_1 :0_16_2 :0_23_0" shape="-13.15,14.65 13.15,14.65 14.65,13.15 14.65,-13.15 13.15,-14.65 -13.15,-14.65 -14.65,-13.15 -14.65,13.15" customShape="1">
        <request index="0"  response="00000000000000000000" foes="00000000000111000000" cont="0"/>
        <request index="1"  response="10000000000000000000" foes="11111100000111000000" cont="0"/>
        <request index="2"  response="10000000000000000000" foes="11111100000111000000" cont="0"/>
        <request index="3"  response="10000000000000000000" foes="11111100000111000000" cont="0"/>
        <request index="4"  response="10000011101000000000" foes="10000011101111000000" cont="1"/>
        <request index="5"  response="00000011100000000000" foes="00000011100000000000" cont="0"/>
        <request index="6"  response="00000011100000011111" foes="10000011100000011111" cont="0"/>
        <request index="7"  response="00000011100000011111" foes="10000011100000011111" cont="0"/>
        <request index="8"  response="00000011100000011111" foes="10000011100000011111" cont="0"/>
        <request index="9"  response="01110111100000010000" foes="01110111100000010000" cont="1"/>
        <request index="10" response="00000000000000000000" foes="01110000000000000000" cont="0"/>
        <request index="11" response="00000000001000000000" foes="01110000001111110000" cont="0"/>
        <request index="12" response="00000000001000000000" foes="01110000001111110000" cont="0"/>
        <request index="13" response="00000000001000000000" foes="01110000001111110000" cont="0"/>
        <request index="14" response="10000000001000001110" foes="11110000001000001110" cont="1"/>
        <request index="15" response="00000000000000001110" foes="00000000000000001110" cont="0"/>
        <request index="16" response="00000111110000001110" foes="00000111111000001110" cont="0"/>
        <request index="17" response="00000111110000001110" foes="00000111111000001110" cont="0"/>
        <request index="18" response="00000111110000001110" foes="00000111111000001110" cont="0"/>
        <request index="19" response="00000100000111011110" foes="00000100000111011110" cont="1"/>
    </junction>
    <junction id="1" type="priority" x="0.00" y="500.00" incLanes="51i_0 51i_1 51i_2 51i_3 1o_0 1o_1 1o_2 1o_3" intLanes=":1_0_0 :1_0_1 :1_0_2 :1_0_3 :1_4_0 :1_4_1 :1_4_2 :1_4_3" shape="-13.15,501.50 13.15,501.50 13.15,498.50 -13.15,498.50" customShape="1">
        <request index="0" response="00000000" foes="00000000" cont="0"/>
        <request index="1" response="00000000" foes="00000000" cont="0"/>
        <request index="2" response="00000000" foes="00000000" cont="0"/>
        <request index="3" response="00000000" foes="00000000" cont="0"/>
        <request index="4" response="00000000" foes="00000000" cont="0"/>
        <request index="5" response="00000000" foes="00000000" cont="0"/>
        <request index="6" response="00000000" foes="00000000" cont="0"/>
        <request index="7" response="00000000" foes="00000000" cont="0"/>
    </junction>
    <junction id="2" type="priority" x="500.00" y="0.00" incLanes="52i_0 52i_1 52i_2 52i_3 2o_0 2o_1 2o_2 2o_3" intLanes=":2_0_0 :2_0_1 :2_0_2 :2_0_3 :2_4_0 :2_4_1 :2_4_2 :2_4_3" shape="501.50,13.15 501.50,-13.15 498.50,-13.15 498.50,13.15" customShape="1">
        <request index="0" response="00000000" foes="00000000" cont="0"/>
        <request index="1" response="00000000" foes="00000000" cont="0"/>
        <request index="2" response="00000000" foes="00000000" cont="0"/>
        <request index="3" response="00000000" foes="00000000" cont="0"/>
        <request index="4" response="00000000" foes="00000000" cont="0"/>
        <request index="5" response="00000000" foes="00000000" cont="0"/>
        <request index="6" response="00000000" foes="00000000" cont="0"/>
        <request index="7" response="00000000" foes="00000000" cont="0"/>
    </junction>
    <junction id="3" type="priority" x="0.00" y="-500.00" incLanes="3o_0 3o_1 3o_2 3o_3 53i_0 53i_1 53i_2 53i_3" intLanes=":3_0_0 :3_0_1 :3_0_2 :3_0_3 :3_4_0 :3_4_1 :3_4_2 :3_4_3" shape="-13.15,-498.50 13.15,-498.50 13.15,-501.50 -13.15,-501.50" customShape="1">
        <request index="0" response="00000000" foes="00000000" cont="0"/>
        <request index="1" response="00000000" foes="00000000" cont="0"/>
        <request index="2" response="00000000" foes="00000000" cont="0"/>
        <request index="3" response="00000000" foes="00000000" cont="0"/>
        <request index="4" response="00000000" foes="00000000" cont="0"/>
        <request index="5" response="00000000" foes="00000000" cont="0"/>
        <request index="6" response="00000000" foes="00000000" cont="0"/>
        <request index="7" response="00000000" foes="00000000" cont="0"/>
    </junction>
    <junction id="4" type="priority" x="-500.00" y="0.00" incLanes="4o_0 4o_1 4o_2 4o_3 54i_0 54i_1 54i_2 54i_3" intLanes=":4_0_0 :4_0_1 :4_0_2 :4_0_3 :4_4_0 :4_4_1 :4_4_2 :4_4_3" shape="-498.50,13.15 -498.50,-13.15 -501.50,-13.15 -501.50,13.15" customShape="1">
        <request index="0" response="00000000" foes="00000000" cont="0"/>
        <request index="1" response="00000000" foes="00000000" cont="0"/>
        <request index="2" response="00000000" foes="00000000" cont="0"/>
        <request index="3" response="00000000" foes="00000000" cont="0"/>
        <request index="4" response="00000000" foes="00000000" cont="0"/>
        <request index="5" response="00000000" foes="00000000" cont="0"/>
        <request index="6" response="00000000" foes="00000000" cont="0"/>
        <request index="7" response="00000000" foes="00000000" cont="0"/>
    </junction>
    <junction id="51" type="dead_end" x="0.00" y="510.00" incLanes="51o_0 51o_1 51o_2 51o_3" intLanes="" shape="0.00,510.00 12.80,510.00 0.00,510.00"/>
    <junction id="52" type="dead_end" x="510.00" y="0.00" incLanes="52o_0 52o_1 52o_2 52o_3" intLanes="" shape="510.00,0.00 510.00,-12.80 510.00,0.00"/>
    <junction id="53" type="dead_end" x="0.00" y="-510.00" incLanes="53o_0 53o_1 53o_2 53o_3" intLanes="" shape="0.00,-510.00 -12.80,-510.00 0.00,-510.00"/>
    <junction id="54" type="dead_end" x="-510.00" y="0.00" incLanes="54o_0 54o_1 54o_2 54o_3" intLanes="" shape="-510.00,0.00 -510.00,12.80 -510.00,0.00"/>

    <junction id=":0_20_0" type="internal" x="3.20" y="2.02" incLanes=":0_4_0 3i_0 3i_1 3i_2" intLanes=":0_6_0 :0_6_1 :0_6_2 :0_9_0 :0_10_0 :0_11_0 :0_11_1 :0_11_2 :0_16_0 :0_16_1 :0_16_2 :0_19_0"/>
    <junction id=":0_21_0" type="internal" x="2.02" y="-3.20" incLanes=":0_9_0 4i_0 4i_1 4i_2" intLanes=":0_1_0 :0_1_1 :0_1_2 :0_4_0 :0_11_0 :0_11_1 :0_11_2 :0_14_0 :0_15_0 :0_16_0 :0_16_1 :0_16_2"/>
    <junction id=":0_22_0" type="internal" x="-3.20" y="-2.02" incLanes=":0_14_0 1i_0 1i_1 1i_2" intLanes=":0_0_0 :0_1_0 :0_1_1 :0_1_2 :0_6_0 :0_6_1 :0_6_2 :0_9_0 :0_16_0 :0_16_1 :0_16_2 :0_19_0"/>
    <junction id=":0_23_0" type="internal" x="-2.02" y="3.20" incLanes=":0_19_0 2i_0 2i_1 2i_2" intLanes=":0_1_0 :0_1_1 :0_1_2 :0_4_0 :0_5_0 :0_6_0 :0_6_1 :0_6_2 :0_11_0 :0_11_1 :0_11_2 :0_14_0"/>

    <connection from="1i" to="4o" fromLane="0" toLane="0" via=":0_0_0" tl="tlstatic" linkIndex="0" dir="r" state="O"/>
    <connection from="1i" to="3o" fromLane="0" toLane="0" via=":0_1_0" tl="tlstatic" linkIndex="1" dir="s" state="O"/>
    <connection from="1i" to="3o" fromLane="1" toLane="1" via=":0_1_1" tl="tlstatic" linkIndex="2" dir="s" state="O"/>
    <connection from="1i" to="3o" fromLane="2" toLane="2" via=":0_1_2" tl="tlstatic" linkIndex="3" dir="s" state="O"/>
    <connection from="1i" to="2o" fromLane="3" toLane="3" via=":0_4_0" tl="tlstatic" linkIndex="4" dir="l" state="o"/>
    <connection from="1o" to="51o" fromLane="0" toLane="0" via=":1_4_0" dir="s" state="M"/>
    <connection from="1o" to="51o" fromLane="1" toLane="1" via=":1_4_1" dir="s" state="M"/>
    <connection from="1o" to="51o" fromLane="2" toLane="2" via=":1_4_2" dir="s" state="M"/>
    <connection from="1o" to="51o" fromLane="3" toLane="3" via=":1_4_3" dir="s" state="M"/>
    <connection from="2i" to="1o" fromLane="0" toLane="0" via=":0_5_0" tl="tlstatic" linkIndex="5" dir="r" state="o"/>
    <connection from="2i" to="4o" fromLane="0" toLane="0" via=":0_6_0" tl="tlstatic" linkIndex="6" dir="s" state="o"/>
    <connection from="2i" to="4o" fromLane="1" toLane="1" via=":0_6_1" tl="tlstatic" linkIndex="7" dir="s" state="o"/>
    <connection from="2i" to="4o" fromLane="2" toLane="2" via=":0_6_2" tl="tlstatic" linkIndex="8" dir="s" state="o"/>
    <connection from="2i" to="3o" fromLane="3" toLane="3" via=":0_9_0" tl="tlstatic" linkIndex="9" dir="l" state="o"/>
    <connection from="2o" to="52o" fromLane="0" toLane="0" via=":2_4_0" dir="s" state="M"/>
    <connection from="2o" to="52o" fromLane="1" toLane="1" via=":2_4_1" dir="s" state="M"/>
    <connection from="2o" to="52o" fromLane="2" toLane="2" via=":2_4_2" dir="s" state="M"/>
    <connection from="2o" to="52o" fromLane="3" toLane="3" via=":2_4_3" dir="s" state="M"/>
    <connection from="3i" to="2o" fromLane="0" toLane="0" via=":0_10_0" tl="tlstatic" linkIndex="10" dir="r" state="O"/>
    <connection from="3i" to="1o" fromLane="0" toLane="0" via=":0_11_0" tl="tlstatic" linkIndex="11" dir="s" state="O"/>
    <connection from="3i" to="1o" fromLane="1" toLane="1" via=":0_11_1" tl="tlstatic" linkIndex="12" dir="s" state="O"/>
    <connection from="3i" to="1o" fromLane="2" toLane="2" via=":0_11_2" tl="tlstatic" linkIndex="13" dir="s" state="O"/>
    <connection from="3i" to="4o" fromLane="3" toLane="3" via=":0_14_0" tl="tlstatic" linkIndex="14" dir="l" state="o"/>
    <connection from="3o" to="53o" fromLane="0" toLane="0" via=":3_0_0" dir="s" state="M"/>
    <connection from="3o" to="53o" fromLane="1" toLane="1" via=":3_0_1" dir="s" state="M"/>
    <connection from="3o" to="53o" fromLane="2" toLane="2" via=":3_0_2" dir="s" state="M"/>
    <connection from="3o" to="53o" fromLane="3" toLane="3" via=":3_0_3" dir="s" state="M"/>
    <connection from="4i" to="3o" fromLane="0" toLane="0" via=":0_15_0" tl="tlstatic" linkIndex="15" dir="r" state="o"/>
    <connection from="4i" to="2o" fromLane="0" toLane="0" via=":0_16_0" tl="tlstatic" linkIndex="16" dir="s" state="o"/>
    <connection from="4i" to="2o" fromLane="1" toLane="1" via=":0_16_1" tl="tlstatic" linkIndex="17" dir="s" state="o"/>
    <connection from="4i" to="2o" fromLane="2" toLane="2" via=":0_16_2" tl="tlstatic" linkIndex="18" dir="s" state="o"/>
    <connection from="4i" to="1o" fromLane="3" toLane="3" via=":0_19_0" tl="tlstatic" linkIndex="19" dir="l" state="o"/>
    <connection from="4o" to="54o" fromLane="0" toLane="0" via=":4_0_0" dir="s" state="M"/>
    <connection from="4o" to="54o" fromLane="1" toLane="1" via=":4_0_1" dir="s" state="M"/>
    <connection from="4o" to="54o" fromLane="2" toLane="2" via=":4_0_2" dir="s" state="M"/>
    <connection from="4o" to="54o" fromLane="3" toLane="3" via=":4_0_3" dir="s" state="M"/>
    <connection from="51i" to="1i" fromLane="0" toLane="0" via=":1_0_0" dir="s" state="M"/>
    <connection from="51i" to="1i" fromLane="1" toLane="1" via=":1_0_1" dir="s" state="M"/>
    <connection from="51i" to="1i" fromLane="2" toLane="2" via=":1_0_2" dir="s" state="M"/>
    <connection from="51i" to="1i" fromLane="3" toLane="3" via=":1_0_3" dir="s" state="M"/>
    <connection from="52i" to="2i" fromLane="0" toLane="0" via=":2_0_0" dir="s" state="M"/>
    <connection from="52i" to="2i" fromLane="1" toLane="1" via=":2_0_1" dir="s" state="M"/>
    <connection from="52i" to="2i" fromLane="2" toLane="2" via=":2_0_2" dir="s" state="M"/>
    <connection from="52i" to="2i" fromLane="3" toLane="3" via=":2_0_3" dir="s" state="M"/>
    <connection from="53i" to="3i" fromLane="0" toLane="0" via=":3_4_0" dir="s" state="M"/>
    <connection from="53i" to="3i" fromLane="1" toLane="1" via=":3_4_1" dir="s" state="M"/>
    <connection from="53i" to="3i" fromLane="2" toLane="2" via=":3_4_2" dir="s" state="M"/>
    <connection from="53i" to="3i" fromLane="3" toLane="3" via=":3_4_3" dir="s" state="M"/>
    <connection from="54i" to="4i" fromLane="0" toLane="0" via=":4_4_0" dir="s" state="M"/>
    <connection from="54i" to="4i" fromLane="1" toLane="1" via=":4_4_1" dir="s" state="M"/>
    <connection from="54i" to="4i" fromLane="2" toLane="2" via=":4_4_2" dir="s" state="M"/>
    <connection from="54i" to="4i" fromLane="3" toLane="3" via=":4_4_3" dir="s" state="M"/>

    <connection from=":0_0" to="4o" fromLane="0" toLane="0" dir="r" state="M"/>
    <connection from=":0_1" to="3o" fromLane="0" toLane="0" dir="s" state="M"/>
    <connection from=":0_1" to="3o" fromLane="1" toLane="1" dir="s" state="M"/>
    <connection from=":0_1" to="3o" fromLane="2" toLane="2" dir="s" state="M"/>
    <connection from=":0_4" to="2o" fromLane="0" toLane="3" via=":0_20_0" dir="l" state="m"/>
    <connection from=":0_20" to="2o" fromLane="0" toLane="3" dir="l" state="M"/>
    <connection from=":0_5" to="1o" fromLane="0" toLane="0" dir="r" state="M"/>
    <connection from=":0_6" to="4o" fromLane="0" toLane="0" dir="s" state="M"/>
    <connection from=":0_6" to="4o" fromLane="1" toLane="1" dir="s" state="M"/>
    <connection from=":0_6" to="4o" fromLane="2" toLane="2" dir="s" state="M"/>